3 
Step: 1      Time_fs:0.0967553730602
 O -0.00006372 0.00000000 -0.00004978
 H -0.00103829 0.00000000 0.96139039
 H 0.93258192 0.00000000 -0.23358880
3 
Step: 2      Time_fs:0.1935107461204
 O -0.00006288 0.00000000 -0.00004913
 H -0.00121610 0.00000000 0.96160419
 H 0.93274636 0.00000000 -0.23381305
3 
Step: 3      Time_fs:0.2902661191806
 O -0.00006142 0.00000000 -0.00004799
 H -0.00151218 0.00000000 0.96195929
 H 0.93301928 0.00000000 -0.23418624
3 
Step: 4      Time_fs:0.3870214922408
 O -0.00005927 0.00000000 -0.00004630
 H -0.00192615 0.00000000 0.96245386
 H 0.93339901 0.00000000 -0.23470756
3 
Step: 5      Time_fs:0.483776865301
 O -0.00005630 0.00000000 -0.00004398
 H -0.00245745 0.00000000 0.96308535
 H 0.93388321 0.00000000 -0.23537585
3 
Step: 6      Time_fs:0.5805322383612
 O -0.00005238 0.00000000 -0.00004092
 H -0.00310540 0.00000000 0.96385052
 H 0.93446889 0.00000000 -0.23618966
3 
Step: 7      Time_fs:0.6772876114214
 O -0.00004733 0.00000000 -0.00003697
 H -0.00386913 0.00000000 0.96474545
 H 0.93515247 0.00000000 -0.23714721
3 
Step: 8      Time_fs:0.7740429844816
 O -0.00004095 0.00000000 -0.00003199
 H -0.00474765 0.00000000 0.96576560
 H 0.93592978 0.00000000 -0.23824643
3 
Step: 9      Time_fs:0.8707983575418
 O -0.00003302 0.00000000 -0.00002580
 H -0.00573980 0.00000000 0.96690580
 H 0.93679609 0.00000000 -0.23948495
3 
Step: 10      Time_fs:0.967553730602
 O -0.00002329 0.00000000 -0.00001820
 H -0.00684427 0.00000000 0.96816034
 H 0.93774616 0.00000000 -0.24086011
3 
Step: 11      Time_fs:1.0643091036622
 O -0.00001150 0.00000000 -0.00000898
 H -0.00805964 0.00000000 0.96952296
 H 0.93877428 0.00000000 -0.24236902
3 
Step: 12      Time_fs:1.1610644767224
 O 0.00000265 0.00000000 0.00000207
 H -0.00938430 0.00000000 0.97098694
 H 0.93987430 0.00000000 -0.24400850
3 
Step: 13      Time_fs:1.2578198497826
 O 0.00001947 0.00000000 0.00001521
 H -0.01081654 0.00000000 0.97254509
 H 0.94103967 0.00000000 -0.24577515
3 
Step: 14      Time_fs:1.3545752228428
 O 0.00003926 0.00000000 0.00003067
 H -0.01235450 0.00000000 0.97418987
 H 0.94226352 0.00000000 -0.24766534
3 
Step: 15      Time_fs:1.451330595903
 O 0.00006235 0.00000000 0.00004871
 H -0.01399620 0.00000000 0.97591337
 H 0.94353866 0.00000000 -0.24967521
3 
Step: 16      Time_fs:1.5480859689632
 O 0.00008908 0.00000000 0.00006960
 H -0.01573951 0.00000000 0.97770741
 H 0.94485765 0.00000000 -0.25180076
3 
Step: 17      Time_fs:1.6448413420234
 O 0.00011979 0.00000000 0.00009359
 H -0.01758221 0.00000000 0.97956355
 H 0.94621286 0.00000000 -0.25403776
3 
Step: 18      Time_fs:1.7415967150836
 O 0.00015483 0.00000000 0.00012096
 H -0.01952195 0.00000000 0.98147316
 H 0.94759648 0.00000000 -0.25638186
3 
Step: 19      Time_fs:1.8383520881438
 O 0.00019453 0.00000000 0.00015198
 H -0.02155627 0.00000000 0.98342748
 H 0.94900059 0.00000000 -0.25882853
3 
Step: 20      Time_fs:1.935107461204
 O 0.00023924 0.00000000 0.00018691
 H -0.02368260 0.00000000 0.98541764
 H 0.95041722 0.00000000 -0.26137317
