3 
Step: 1      Time_fs:0.0967553730602
 O -0.00006428 0.00000000 -0.00005022
 H -0.00091971 0.00000000 0.96124761
 H 0.93247208 0.00000000 -0.23343920
3 
Step: 2      Time_fs:0.1935107461204
 O -0.00006508 0.00000000 -0.00005084
 H -0.00074170 0.00000000 0.96103289
 H 0.93230679 0.00000000 -0.23321454
3 
Step: 3      Time_fs:0.2902661191806
 O -0.00006634 0.00000000 -0.00005183
 H -0.00044468 0.00000000 0.96067334
 H 0.93202979 0.00000000 -0.23283936
3 
Step: 4      Time_fs:0.3870214922408
 O -0.00006796 0.00000000 -0.00005309
 H -0.00002817 0.00000000 0.96016673
 H 0.93163899 0.00000000 -0.23231266
3 
Step: 5      Time_fs:0.483776865301
 O -0.00006980 0.00000000 -0.00005453
 H 0.00050846 0.00000000 0.95951003
 H 0.93113162 0.00000000 -0.23163310
3 
Step: 6      Time_fs:0.5805322383612
 O -0.00007169 0.00000000 -0.00005601
 H 0.00116600 0.00000000 0.95869940
 H 0.93050415 0.00000000 -0.23079898
3 
Step: 7      Time_fs:0.6772876114214
 O -0.00007343 0.00000000 -0.00005737
 H 0.00194540 0.00000000 0.95773018
 H 0.92975227 0.00000000 -0.22980826
3 
Step: 8      Time_fs:0.7740429844816
 O -0.00007475 0.00000000 -0.00005840
 H 0.00284778 0.00000000 0.95659680
 H 0.92887087 0.00000000 -0.22865850
3 
Step: 9      Time_fs:0.8707983575418
 O -0.00007536 0.00000000 -0.00005888
 H 0.00387441 0.00000000 0.95529279
 H 0.92785397 0.00000000 -0.22734689
3 
Step: 10      Time_fs:0.967553730602
 O -0.00007492 0.00000000 -0.00005853
 H 0.00502675 0.00000000 0.95381068
 H 0.92669466 0.00000000 -0.22587023
