3 
Step: 1      Time_fs: 0.1451330595903
 O -0.05219088 -0.00000000 -0.04077016
 H -0.05273724 0.00000000 0.92119352
 H 0.88116149 0.00000000 -0.27404998
3 
Step: 2      Time_fs: 0.2902661191806
 O -0.05237996 -0.00000000 -0.04090048
 H -0.05182165 -0.00000000 0.92283868
 H 0.88324713 0.00000000 -0.27362663
3 
Step: 3      Time_fs: 0.4353991787709
 O -0.05269313 -0.00000000 -0.04111629
 H -0.05029787 -0.00000000 0.92555373
 H 0.88669421 0.00000000 -0.27291611
3 
Step: 4      Time_fs: 0.5805322383612
 O -0.05312749 -0.00000000 -0.04141556
 H -0.04816931 -0.00000000 0.92929929
 H 0.89146032 0.00000000 -0.27191135
