3 
Step: 1      Time_fs: 0.1451330595903
 O -0.05218676 0.00000000 -0.04077276
 H -0.05281665 0.00000000 0.92131992
 H 0.88117540 0.00000000 -0.27413519
3 
Step: 2      Time_fs: 0.2902661191806
 O -0.05236344 0.00000000 -0.04091080
 H -0.05213914 0.00000000 0.92334316
 H 0.88330244 0.00000000 -0.27396727
