3 
Step: 1      Time_fs:0.0967553730602
 O -0.05212738 -0.05206366 -0.05211344
 H -0.05310195 -0.05206366 0.90932673
 H 0.88051827 -0.05206366 -0.28565246
3 
Step: 2      Time_fs:0.1935107461204
 O -0.05212654 -0.05206366 -0.05211278
 H -0.05327976 -0.05206366 0.90954053
 H 0.88068270 -0.05206366 -0.28587671
3 
Step: 3      Time_fs:0.2902661191806
 O -0.05212508 -0.05206366 -0.05211165
 H -0.05357584 -0.05206366 0.90989563
 H 0.88095562 -0.05206366 -0.28624990
3 
Step: 4      Time_fs:0.3870214922408
 O -0.05212292 -0.05206366 -0.05210996
 H -0.05398981 -0.05206366 0.91039020
 H 0.88133535 -0.05206366 -0.28677122
3 
Step: 5      Time_fs:0.483776865301
 O -0.05211996 -0.05206366 -0.05210764
 H -0.05452111 -0.05206366 0.91102169
 H 0.88181955 -0.05206366 -0.28743951
3 
Step: 6      Time_fs:0.5805322383612
 O -0.05211603 -0.05206366 -0.05210458
 H -0.05516906 -0.05206366 0.91178686
 H 0.88240523 -0.05206366 -0.28825332
3 
Step: 7      Time_fs:0.6772876114214
 O -0.05211098 -0.05206366 -0.05210063
 H -0.05593279 -0.05206366 0.91268179
 H 0.88308881 -0.05206366 -0.28921087
3 
Step: 8      Time_fs:0.7740429844816
 O -0.05210461 -0.05206366 -0.05209565
 H -0.05681131 -0.05206366 0.91370194
 H 0.88386612 -0.05206366 -0.29031009
3 
Step: 9      Time_fs:0.8707983575418
 O -0.05209668 -0.05206366 -0.05208946
 H -0.05780346 -0.05206366 0.91484214
 H 0.88473243 -0.05206366 -0.29154860
3 
Step: 10      Time_fs:0.967553730602
 O -0.05208695 -0.05206366 -0.05208186
 H -0.05890793 -0.05206366 0.91609668
 H 0.88568250 -0.05206366 -0.29292377
3 
Step: 11      Time_fs:1.0643091036622
 O -0.05207516 -0.05206366 -0.05207264
 H -0.06012330 -0.05206366 0.91745931
 H 0.88671062 -0.05206366 -0.29443268
3 
Step: 12      Time_fs:1.1610644767224
 O -0.05206100 -0.05206366 -0.05206158
 H -0.06144796 -0.05206366 0.91892328
 H 0.88781064 -0.05206366 -0.29607216
3 
Step: 13      Time_fs:1.2578198497826
 O -0.05204419 -0.05206366 -0.05204845
 H -0.06288020 -0.05206366 0.92048144
 H 0.88897602 -0.05206366 -0.29783881
3 
Step: 14      Time_fs:1.3545752228428
 O -0.05202440 -0.05206366 -0.05203299
 H -0.06441816 -0.05206366 0.92212621
 H 0.89019987 -0.05206366 -0.29972899
3 
Step: 1      Time_fs:0.0967553730602
 O -0.05212738 -0.05206366 -0.05211344
 H -0.05310195 -0.05206366 0.90932673
 H 0.88051827 -0.05206366 -0.28565246
3 
Step: 2      Time_fs:0.1935107461204
 O -0.05212654 -0.05206366 -0.05211278
 H -0.05327976 -0.05206366 0.90954053
 H 0.88068270 -0.05206366 -0.28587671
