3 
Step: 1      Time_fs:0.0967553730602
 C 0.00005588 0.00005588 0.00005588
 C 2.00005588 0.00005588 0.00005588
 C 0.00005588 2.00005588 0.00005588
3 
Step: 2      Time_fs:0.1935107461204
 C 0.00011819 0.00011819 0.00011819
 C 2.00011819 0.00011819 0.00011819
 C 0.00011819 2.00011819 0.00011819
3 
Step: 3      Time_fs:0.2902661191806
 C 0.00019983 0.00019983 0.00019983
 C 2.00019983 0.00019983 0.00019983
 C 0.00019983 2.00019983 0.00019983
3 
Step: 4      Time_fs:0.3870214922408
 C 0.00030081 0.00030081 0.00030081
 C 2.00030081 0.00030081 0.00030081
 C 0.00030081 2.00030081 0.00030081
3 
Step: 5      Time_fs:0.483776865301
 C 0.00042112 0.00042112 0.00042112
 C 2.00042112 0.00042112 0.00042112
 C 0.00042112 2.00042112 0.00042112
3 
Step: 6      Time_fs:0.5805322383612
 C 0.00056077 0.00056077 0.00056077
 C 2.00056077 0.00056077 0.00056077
 C 0.00056077 2.00056077 0.00056077
3 
Step: 7      Time_fs:0.6772876114214
 C 0.00071976 0.00071976 0.00071976
 C 2.00071976 0.00071976 0.00071976
 C 0.00071976 2.00071976 0.00071976
3 
Step: 8      Time_fs:0.7740429844816
 C 0.00089808 0.00089808 0.00089808
 C 2.00089808 0.00089808 0.00089808
 C 0.00089808 2.00089808 0.00089808
3 
Step: 9      Time_fs:0.8707983575418
 C 0.00109573 0.00109573 0.00109573
 C 2.00109573 0.00109573 0.00109573
 C 0.00109573 2.00109573 0.00109573
3 
Step: 10      Time_fs:0.967553730602
 C 0.00131272 0.00131272 0.00131272
 C 2.00131272 0.00131272 0.00131272
 C 0.00131272 2.00131272 0.00131272
3 
Step: 11      Time_fs:1.0643091036622
 C 0.00154905 0.00154905 0.00154905
 C 2.00154905 0.00154905 0.00154905
 C 0.00154905 2.00154905 0.00154905
3 
Step: 12      Time_fs:1.1610644767224
 C 0.00180471 0.00180471 0.00180471
 C 2.00180471 0.00180471 0.00180471
 C 0.00180471 2.00180471 0.00180471
3 
Step: 13      Time_fs:1.2578198497826
 C 0.00207971 0.00207971 0.00207971
 C 2.00207971 0.00207971 0.00207971
 C 0.00207971 2.00207971 0.00207971
3 
Step: 14      Time_fs:1.3545752228428
 C 0.00237404 0.00237404 0.00237404
 C 2.00237404 0.00237404 0.00237404
 C 0.00237404 2.00237404 0.00237404
3 
Step: 15      Time_fs:1.451330595903
 C 0.00268771 0.00268771 0.00268771
 C 2.00268771 0.00268771 0.00268771
 C 0.00268771 2.00268771 0.00268771
3 
Step: 16      Time_fs:1.5480859689632
 C 0.00302071 0.00302071 0.00302071
 C 2.00302071 0.00302071 0.00302071
 C 0.00302071 2.00302071 0.00302071
3 
Step: 17      Time_fs:1.6448413420234
 C 0.00337305 0.00337305 0.00337305
 C 2.00337305 0.00337305 0.00337305
 C 0.00337305 2.00337305 0.00337305
3 
Step: 18      Time_fs:1.7415967150836
 C 0.00374472 0.00374472 0.00374472
 C 2.00374472 0.00374472 0.00374472
 C 0.00374472 2.00374472 0.00374472
3 
Step: 19      Time_fs:1.8383520881438
 C 0.00413573 0.00413573 0.00413573
 C 2.00413573 0.00413573 0.00413573
 C 0.00413573 2.00413573 0.00413573
3 
Step: 20      Time_fs:1.935107461204
 C 0.00454608 0.00454608 0.00454608
 C 2.00454608 0.00454608 0.00454608
 C 0.00454608 2.00454608 0.00454608
3 
Step: 21      Time_fs:2.0318628342642002
 C 0.00497576 0.00497576 0.00497576
 C 2.00497576 0.00497576 0.00497576
 C 0.00497576 2.00497576 0.00497576
3 
Step: 22      Time_fs:2.1286182073244
 C 0.00542477 0.00542477 0.00542477
 C 2.00542477 0.00542477 0.00542477
 C 0.00542477 2.00542477 0.00542477
3 
Step: 23      Time_fs:2.2253735803846
 C 0.00589312 0.00589312 0.00589312
 C 2.00589312 0.00589312 0.00589312
 C 0.00589312 2.00589312 0.00589312
3 
Step: 24      Time_fs:2.3221289534448
 C 0.00638081 0.00638081 0.00638081
 C 2.00638081 0.00638081 0.00638081
 C 0.00638081 2.00638081 0.00638081
3 
Step: 25      Time_fs:2.418884326505
 C 0.00688783 0.00688783 0.00688783
 C 2.00688783 0.00688783 0.00688783
 C 0.00688783 2.00688783 0.00688783
3 
Step: 26      Time_fs:2.5156396995652
 C 0.00741419 0.00741419 0.00741419
 C 2.00741419 0.00741419 0.00741419
 C 0.00741419 2.00741419 0.00741419
3 
Step: 27      Time_fs:2.6123950726254
 C 0.00795988 0.00795988 0.00795988
 C 2.00795988 0.00795988 0.00795988
 C 0.00795988 2.00795988 0.00795988
3 
Step: 28      Time_fs:2.7091504456856
 C 0.00852490 0.00852490 0.00852490
 C 2.00852490 0.00852490 0.00852490
 C 0.00852490 2.00852490 0.00852490
3 
Step: 29      Time_fs:2.8059058187458
 C 0.00910927 0.00910927 0.00910927
 C 2.00910927 0.00910927 0.00910927
 C 0.00910927 2.00910927 0.00910927
3 
Step: 30      Time_fs:2.902661191806
 C 0.00971296 0.00971296 0.00971296
 C 2.00971296 0.00971296 0.00971296
 C 0.00971296 2.00971296 0.00971296
3 
Step: 31      Time_fs:2.9994165648662
 C 0.01033600 0.01033600 0.01033600
 C 2.01033600 0.01033600 0.01033600
 C 0.01033600 2.01033600 0.01033600
3 
Step: 32      Time_fs:3.0961719379264
 C 0.01097837 0.01097837 0.01097837
 C 2.01097837 0.01097837 0.01097837
 C 0.01097837 2.01097837 0.01097837
3 
Step: 33      Time_fs:3.1929273109866
 C 0.01164007 0.01164007 0.01164007
 C 2.01164007 0.01164007 0.01164007
 C 0.01164007 2.01164007 0.01164007
3 
Step: 34      Time_fs:3.2896826840468
 C 0.01232111 0.01232111 0.01232111
 C 2.01232111 0.01232111 0.01232111
 C 0.01232111 2.01232111 0.01232111
3 
Step: 35      Time_fs:3.386438057107
 C 0.01302148 0.01302148 0.01302148
 C 2.01302148 0.01302148 0.01302148
 C 0.01302148 2.01302148 0.01302148
3 
Step: 36      Time_fs:3.4831934301672
 C 0.01374119 0.01374119 0.01374119
 C 2.01374119 0.01374119 0.01374119
 C 0.01374119 2.01374119 0.01374119
3 
Step: 37      Time_fs:3.5799488032274
 C 0.01448024 0.01448024 0.01448024
 C 2.01448024 0.01448024 0.01448024
 C 0.01448024 2.01448024 0.01448024
3 
Step: 38      Time_fs:3.6767041762876
 C 0.01523862 0.01523862 0.01523862
 C 2.01523862 0.01523862 0.01523862
 C 0.01523862 2.01523862 0.01523862
3 
Step: 39      Time_fs:3.7734595493478
 C 0.01601633 0.01601633 0.01601633
 C 2.01601633 0.01601633 0.01601633
 C 0.01601633 2.01601633 0.01601633
3 
Step: 40      Time_fs:3.870214922408
 C 0.01681338 0.01681338 0.01681338
 C 2.01681338 0.01681338 0.01681338
 C 0.01681338 2.01681338 0.01681338
3 
Step: 41      Time_fs:3.9669702954682
 C 0.01762977 0.01762977 0.01762977
 C 2.01762977 0.01762977 0.01762977
 C 0.01762977 2.01762977 0.01762977
3 
Step: 42      Time_fs:4.0637256685284004
 C 0.01846549 0.01846549 0.01846549
 C 2.01846549 0.01846549 0.01846549
 C 0.01846549 2.01846549 0.01846549
3 
Step: 43      Time_fs:4.1604810415886
 C 0.01932055 0.01932055 0.01932055
 C 2.01932055 0.01932055 0.01932055
 C 0.01932055 2.01932055 0.01932055
3 
Step: 44      Time_fs:4.2572364146488
 C 0.02019494 0.02019494 0.02019494
 C 2.02019494 0.02019494 0.02019494
 C 0.02019494 2.02019494 0.02019494
3 
Step: 45      Time_fs:4.353991787709
 C 0.02108867 0.02108867 0.02108867
 C 2.02108867 0.02108867 0.02108867
 C 0.02108867 2.02108867 0.02108867
3 
Step: 46      Time_fs:4.4507471607692
 C 0.02200173 0.02200173 0.02200173
 C 2.02200173 0.02200173 0.02200173
 C 0.02200173 2.02200173 0.02200173
3 
Step: 47      Time_fs:4.5475025338294
 C 0.02293413 0.02293413 0.02293413
 C 2.02293413 0.02293413 0.02293413
 C 0.02293413 2.02293413 0.02293413
3 
Step: 48      Time_fs:4.6442579068896
 C 0.02388587 0.02388587 0.02388587
 C 2.02388587 0.02388587 0.02388587
 C 0.02388587 2.02388587 0.02388587
3 
Step: 49      Time_fs:4.7410132799498
 C 0.02485693 0.02485693 0.02485693
 C 2.02485693 0.02485693 0.02485693
 C 0.02485693 2.02485693 0.02485693
3 
Step: 50      Time_fs:4.83776865301
 C 0.02584734 0.02584734 0.02584734
 C 2.02584734 0.02584734 0.02584734
 C 0.02584734 2.02584734 0.02584734
3 
Step: 51      Time_fs:4.9345240260702
 C 0.02685708 0.02685708 0.02685708
 C 2.02685708 0.02685708 0.02685708
 C 0.02685708 2.02685708 0.02685708
3 
Step: 52      Time_fs:5.0312793991304
 C 0.02788615 0.02788615 0.02788615
 C 2.02788615 0.02788615 0.02788615
 C 0.02788615 2.02788615 0.02788615
3 
Step: 53      Time_fs:5.1280347721906
 C 0.02893457 0.02893457 0.02893457
 C 2.02893457 0.02893457 0.02893457
 C 0.02893457 2.02893457 0.02893457
3 
Step: 54      Time_fs:5.2247901452508
 C 0.03000231 0.03000231 0.03000231
 C 2.03000231 0.03000231 0.03000231
 C 0.03000231 2.03000231 0.03000231
3 
Step: 55      Time_fs:5.321545518311
 C 0.03108939 0.03108939 0.03108939
 C 2.03108939 0.03108939 0.03108939
 C 0.03108939 2.03108939 0.03108939
3 
Step: 56      Time_fs:5.4183008913712
 C 0.03219581 0.03219581 0.03219581
 C 2.03219581 0.03219581 0.03219581
 C 0.03219581 2.03219581 0.03219581
3 
Step: 57      Time_fs:5.5150562644314
 C 0.03332156 0.03332156 0.03332156
 C 2.03332156 0.03332156 0.03332156
 C 0.03332156 2.03332156 0.03332156
3 
Step: 58      Time_fs:5.6118116374916
 C 0.03446665 0.03446665 0.03446665
 C 2.03446665 0.03446665 0.03446665
 C 0.03446665 2.03446665 0.03446665
3 
Step: 59      Time_fs:5.7085670105518
 C 0.03563107 0.03563107 0.03563107
 C 2.03563107 0.03563107 0.03563107
 C 0.03563107 2.03563107 0.03563107
3 
Step: 60      Time_fs:5.805322383612
 C 0.03681483 0.03681483 0.03681483
 C 2.03681483 0.03681483 0.03681483
 C 0.03681483 2.03681483 0.03681483
3 
Step: 61      Time_fs:5.9020777566722
 C 0.03801792 0.03801792 0.03801792
 C 2.03801792 0.03801792 0.03801792
 C 0.03801792 2.03801792 0.03801792
3 
Step: 62      Time_fs:5.9988331297324
 C 0.03924035 0.03924035 0.03924035
 C 2.03924035 0.03924035 0.03924035
 C 0.03924035 2.03924035 0.03924035
3 
Step: 63      Time_fs:6.0955885027926
 C 0.04048211 0.04048211 0.04048211
 C 2.04048211 0.04048211 0.04048211
 C 0.04048211 2.04048211 0.04048211
3 
Step: 64      Time_fs:6.1923438758528
 C 0.04174321 0.04174321 0.04174321
 C 2.04174321 0.04174321 0.04174321
 C 0.04174321 2.04174321 0.04174321
3 
Step: 65      Time_fs:6.289099248913001
 C 0.04302365 0.04302365 0.04302365
 C 2.04302365 0.04302365 0.04302365
 C 0.04302365 2.04302365 0.04302365
3 
Step: 66      Time_fs:6.3858546219732
 C 0.04432342 0.04432342 0.04432342
 C 2.04432342 0.04432342 0.04432342
 C 0.04432342 2.04432342 0.04432342
3 
Step: 67      Time_fs:6.482609995033401
 C 0.04564252 0.04564252 0.04564252
 C 2.04564252 0.04564252 0.04564252
 C 0.04564252 2.04564252 0.04564252
3 
Step: 68      Time_fs:6.5793653680936
 C 0.04698096 0.04698096 0.04698096
 C 2.04698096 0.04698096 0.04698096
 C 0.04698096 2.04698096 0.04698096
3 
Step: 69      Time_fs:6.676120741153801
 C 0.04833874 0.04833874 0.04833874
 C 2.04833874 0.04833874 0.04833874
 C 0.04833874 2.04833874 0.04833874
3 
Step: 70      Time_fs:6.772876114214
 C 0.04971585 0.04971585 0.04971585
 C 2.04971585 0.04971585 0.04971585
 C 0.04971585 2.04971585 0.04971585
3 
Step: 71      Time_fs:6.869631487274201
 C 0.05111230 0.05111230 0.05111230
 C 2.05111230 0.05111230 0.05111230
 C 0.05111230 2.05111230 0.05111230
3 
Step: 72      Time_fs:6.9663868603344
 C 0.05252808 0.05252808 0.05252808
 C 2.05252808 0.05252808 0.05252808
 C 0.05252808 2.05252808 0.05252808
3 
Step: 73      Time_fs:7.063142233394601
 C 0.05396320 0.05396320 0.05396320
 C 2.05396320 0.05396320 0.05396320
 C 0.05396320 2.05396320 0.05396320
3 
Step: 74      Time_fs:7.1598976064548
 C 0.05541765 0.05541765 0.05541765
 C 2.05541765 0.05541765 0.05541765
 C 0.05541765 2.05541765 0.05541765
3 
Step: 75      Time_fs:7.2566529795150005
 C 0.05689144 0.05689144 0.05689144
 C 2.05689144 0.05689144 0.05689144
 C 0.05689144 2.05689144 0.05689144
3 
Step: 76      Time_fs:7.3534083525752
 C 0.05838456 0.05838456 0.05838456
 C 2.05838456 0.05838456 0.05838456
 C 0.05838456 2.05838456 0.05838456
3 
Step: 77      Time_fs:7.4501637256354005
 C 0.05989702 0.05989702 0.05989702
 C 2.05989702 0.05989702 0.05989702
 C 0.05989702 2.05989702 0.05989702
3 
Step: 78      Time_fs:7.5469190986956
 C 0.06142881 0.06142881 0.06142881
 C 2.06142881 0.06142881 0.06142881
 C 0.06142881 2.06142881 0.06142881
3 
Step: 79      Time_fs:7.6436744717558005
 C 0.06297994 0.06297994 0.06297994
 C 2.06297994 0.06297994 0.06297994
 C 0.06297994 2.06297994 0.06297994
3 
Step: 80      Time_fs:7.740429844816
 C 0.06455041 0.06455041 0.06455041
 C 2.06455041 0.06455041 0.06455041
 C 0.06455041 2.06455041 0.06455041
3 
Step: 81      Time_fs:7.8371852178762005
 C 0.06614021 0.06614021 0.06614021
 C 2.06614021 0.06614021 0.06614021
 C 0.06614021 2.06614021 0.06614021
3 
Step: 82      Time_fs:7.9339405909364
 C 0.06774934 0.06774934 0.06774934
 C 2.06774934 0.06774934 0.06774934
 C 0.06774934 2.06774934 0.06774934
3 
Step: 83      Time_fs:8.0306959639966
 C 0.06937782 0.06937782 0.06937782
 C 2.06937782 0.06937782 0.06937782
 C 0.06937782 2.06937782 0.06937782
3 
Step: 84      Time_fs:8.127451337056801
 C 0.07102562 0.07102562 0.07102562
 C 2.07102562 0.07102562 0.07102562
 C 0.07102562 2.07102562 0.07102562
3 
Step: 85      Time_fs:8.224206710117
 C 0.07269276 0.07269276 0.07269276
 C 2.07269276 0.07269276 0.07269276
 C 0.07269276 2.07269276 0.07269276
3 
Step: 86      Time_fs:8.3209620831772
 C 0.07437924 0.07437924 0.07437924
 C 2.07437924 0.07437924 0.07437924
 C 0.07437924 2.07437924 0.07437924
3 
Step: 87      Time_fs:8.4177174562374
 C 0.07608505 0.07608505 0.07608505
 C 2.07608505 0.07608505 0.07608505
 C 0.07608505 2.07608505 0.07608505
3 
Step: 88      Time_fs:8.5144728292976
 C 0.07781020 0.07781020 0.07781020
 C 2.07781020 0.07781020 0.07781020
 C 0.07781020 2.07781020 0.07781020
3 
Step: 89      Time_fs:8.6112282023578
 C 0.07955468 0.07955468 0.07955468
 C 2.07955468 0.07955468 0.07955468
 C 0.07955468 2.07955468 0.07955468
3 
Step: 90      Time_fs:8.707983575418
 C 0.08131850 0.08131850 0.08131850
 C 2.08131850 0.08131850 0.08131850
 C 0.08131850 2.08131850 0.08131850
3 
Step: 91      Time_fs:8.8047389484782
 C 0.08310165 0.08310165 0.08310165
 C 2.08310165 0.08310165 0.08310165
 C 0.08310165 2.08310165 0.08310165
3 
Step: 92      Time_fs:8.9014943215384
 C 0.08490414 0.08490414 0.08490414
 C 2.08490414 0.08490414 0.08490414
 C 0.08490414 2.08490414 0.08490414
3 
Step: 93      Time_fs:8.9982496945986
 C 0.08672597 0.08672597 0.08672597
 C 2.08672597 0.08672597 0.08672597
 C 0.08672597 2.08672597 0.08672597
3 
Step: 94      Time_fs:9.0950050676588
 C 0.08856713 0.08856713 0.08856713
 C 2.08856713 0.08856713 0.08856713
 C 0.08856713 2.08856713 0.08856713
3 
Step: 95      Time_fs:9.191760440719
 C 0.09042762 0.09042762 0.09042762
 C 2.09042762 0.09042762 0.09042762
 C 0.09042762 2.09042762 0.09042762
3 
Step: 96      Time_fs:9.2885158137792
 C 0.09230745 0.09230745 0.09230745
 C 2.09230745 0.09230745 0.09230745
 C 0.09230745 2.09230745 0.09230745
3 
Step: 97      Time_fs:9.3852711868394
 C 0.09420662 0.09420662 0.09420662
 C 2.09420662 0.09420662 0.09420662
 C 0.09420662 2.09420662 0.09420662
3 
Step: 98      Time_fs:9.4820265598996
 C 0.09612512 0.09612512 0.09612512
 C 2.09612512 0.09612512 0.09612512
 C 0.09612512 2.09612512 0.09612512
3 
Step: 99      Time_fs:9.578781932959801
 C 0.09806295 0.09806295 0.09806295
 C 2.09806295 0.09806295 0.09806295
 C 0.09806295 2.09806295 0.09806295
3 
Step: 100      Time_fs:9.67553730602
 C 0.10002013 0.10002013 0.10002013
 C 2.10002013 0.10002013 0.10002013
 C 0.10002013 2.10002013 0.10002013
3 
Step: 1      Time_fs:0.0967553730602
 C 0.00000000 0.00000000 0.00000000
 C 2.00000000 0.00000000 0.00000000
 C 0.00000000 2.00000000 0.00000000
3 
Step: 2      Time_fs:0.1935107461204
 C 0.00000000 0.00000000 0.00000000
 C 2.00000000 0.00000000 0.00000000
 C 0.00000000 2.00000000 0.00000000
3 
Step: 3      Time_fs:0.2902661191806
 C 0.00000000 0.00000000 0.00000000
 C 2.00000000 0.00000000 0.00000000
 C 0.00000000 2.00000000 0.00000000
3 
Step: 4      Time_fs:0.3870214922408
 C 0.00000000 0.00000000 0.00000000
 C 2.00000000 0.00000000 0.00000000
 C 0.00000000 2.00000000 0.00000000
3 
Step: 5      Time_fs:0.483776865301
 C 0.00000000 0.00000000 0.00000000
 C 2.00000000 0.00000000 0.00000000
 C 0.00000000 2.00000000 0.00000000
3 
Step: 6      Time_fs:0.5805322383612
 C 0.00000000 0.00000000 0.00000000
 C 2.00000000 0.00000000 0.00000000
 C 0.00000000 2.00000000 0.00000000
3 
Step: 7      Time_fs:0.6772876114214
 C 0.00000000 0.00000000 0.00000000
 C 2.00000000 0.00000000 0.00000000
 C 0.00000000 2.00000000 0.00000000
3 
Step: 8      Time_fs:0.7740429844816
 C 0.00000000 0.00000000 0.00000000
 C 2.00000000 0.00000000 0.00000000
 C 0.00000000 2.00000000 0.00000000
3 
Step: 9      Time_fs:0.8707983575418
 C 0.00000000 0.00000000 0.00000000
 C 2.00000000 0.00000000 0.00000000
 C 0.00000000 2.00000000 0.00000000
3 
Step: 10      Time_fs:0.967553730602
 C 0.00000000 0.00000000 0.00000000
 C 2.00000000 0.00000000 0.00000000
 C 0.00000000 2.00000000 0.00000000
3 
Step: 11      Time_fs:1.0643091036622
 C 0.00000000 0.00000000 0.00000000
 C 2.00000000 0.00000000 0.00000000
 C 0.00000000 2.00000000 0.00000000
3 
Step: 12      Time_fs:1.1610644767224
 C 0.00000000 0.00000000 0.00000000
 C 2.00000000 0.00000000 0.00000000
 C 0.00000000 2.00000000 0.00000000
3 
Step: 13      Time_fs:1.2578198497826
 C 0.00000000 0.00000000 0.00000000
 C 2.00000000 0.00000000 0.00000000
 C 0.00000000 2.00000000 0.00000000
3 
Step: 14      Time_fs:1.3545752228428
 C 0.00000000 0.00000000 0.00000000
 C 2.00000000 0.00000000 0.00000000
 C 0.00000000 2.00000000 0.00000000
3 
Step: 15      Time_fs:1.451330595903
 C 0.00000000 0.00000000 0.00000000
 C 2.00000000 0.00000000 0.00000000
 C 0.00000000 2.00000000 0.00000000
3 
Step: 16      Time_fs:1.5480859689632
 C 0.00000000 0.00000000 0.00000000
 C 2.00000000 0.00000000 0.00000000
 C 0.00000000 2.00000000 0.00000000
3 
Step: 17      Time_fs:1.6448413420234
 C 0.00000000 0.00000000 0.00000000
 C 2.00000000 0.00000000 0.00000000
 C 0.00000000 2.00000000 0.00000000
3 
Step: 18      Time_fs:1.7415967150836
 C 0.00000000 0.00000000 0.00000000
 C 2.00000000 0.00000000 0.00000000
 C 0.00000000 2.00000000 0.00000000
3 
Step: 19      Time_fs:1.8383520881438
 C 0.00000000 0.00000000 0.00000000
 C 2.00000000 0.00000000 0.00000000
 C 0.00000000 2.00000000 0.00000000
3 
Step: 20      Time_fs:1.935107461204
 C 0.00000000 0.00000000 0.00000000
 C 2.00000000 0.00000000 0.00000000
 C 0.00000000 2.00000000 0.00000000
3 
Step: 21      Time_fs:2.0318628342642002
 C 0.00000000 0.00000000 0.00000000
 C 2.00000000 0.00000000 0.00000000
 C 0.00000000 2.00000000 0.00000000
3 
Step: 22      Time_fs:2.1286182073244
 C 0.00000000 0.00000000 0.00000000
 C 2.00000000 0.00000000 0.00000000
 C 0.00000000 2.00000000 0.00000000
3 
Step: 23      Time_fs:2.2253735803846
 C 0.00000000 0.00000000 0.00000000
 C 2.00000000 0.00000000 0.00000000
 C 0.00000000 2.00000000 0.00000000
3 
Step: 24      Time_fs:2.3221289534448
 C 0.00000000 0.00000000 0.00000000
 C 2.00000000 0.00000000 0.00000000
 C 0.00000000 2.00000000 0.00000000
3 
Step: 25      Time_fs:2.418884326505
 C 0.00000000 0.00000000 0.00000000
 C 2.00000000 0.00000000 0.00000000
 C 0.00000000 2.00000000 0.00000000
3 
Step: 26      Time_fs:2.5156396995652
 C 0.00000000 0.00000000 0.00000000
 C 2.00000000 0.00000000 0.00000000
 C 0.00000000 2.00000000 0.00000000
3 
Step: 27      Time_fs:2.6123950726254
 C 0.00000000 0.00000000 0.00000000
 C 2.00000000 0.00000000 0.00000000
 C 0.00000000 2.00000000 0.00000000
3 
Step: 28      Time_fs:2.7091504456856
 C 0.00000000 0.00000000 0.00000000
 C 2.00000000 0.00000000 0.00000000
 C 0.00000000 2.00000000 0.00000000
3 
Step: 29      Time_fs:2.8059058187458
 C 0.00000000 0.00000000 0.00000000
 C 2.00000000 0.00000000 0.00000000
 C 0.00000000 2.00000000 0.00000000
3 
Step: 30      Time_fs:2.902661191806
 C 0.00000000 0.00000000 0.00000000
 C 2.00000000 0.00000000 0.00000000
 C 0.00000000 2.00000000 0.00000000
3 
Step: 31      Time_fs:2.9994165648662
 C 0.00000000 0.00000000 0.00000000
 C 2.00000000 0.00000000 0.00000000
 C 0.00000000 2.00000000 0.00000000
3 
Step: 32      Time_fs:3.0961719379264
 C 0.00000000 0.00000000 0.00000000
 C 2.00000000 0.00000000 0.00000000
 C 0.00000000 2.00000000 0.00000000
3 
Step: 33      Time_fs:3.1929273109866
 C 0.00000000 0.00000000 0.00000000
 C 2.00000000 0.00000000 0.00000000
 C 0.00000000 2.00000000 0.00000000
3 
Step: 34      Time_fs:3.2896826840468
 C 0.00000000 0.00000000 0.00000000
 C 2.00000000 0.00000000 0.00000000
 C 0.00000000 2.00000000 0.00000000
3 
Step: 35      Time_fs:3.386438057107
 C 0.00000000 0.00000000 0.00000000
 C 2.00000000 0.00000000 0.00000000
 C 0.00000000 2.00000000 0.00000000
3 
Step: 36      Time_fs:3.4831934301672
 C 0.00000000 0.00000000 0.00000000
 C 2.00000000 0.00000000 0.00000000
 C 0.00000000 2.00000000 0.00000000
3 
Step: 37      Time_fs:3.5799488032274
 C 0.00000000 0.00000000 0.00000000
 C 2.00000000 0.00000000 0.00000000
 C 0.00000000 2.00000000 0.00000000
3 
Step: 38      Time_fs:3.6767041762876
 C 0.00000000 0.00000000 0.00000000
 C 2.00000000 0.00000000 0.00000000
 C 0.00000000 2.00000000 0.00000000
3 
Step: 39      Time_fs:3.7734595493478
 C 0.00000000 0.00000000 0.00000000
 C 2.00000000 0.00000000 0.00000000
 C 0.00000000 2.00000000 0.00000000
3 
Step: 40      Time_fs:3.870214922408
 C 0.00000000 0.00000000 0.00000000
 C 2.00000000 0.00000000 0.00000000
 C 0.00000000 2.00000000 0.00000000
3 
Step: 41      Time_fs:3.9669702954682
 C 0.00000000 0.00000000 0.00000000
 C 2.00000000 0.00000000 0.00000000
 C 0.00000000 2.00000000 0.00000000
3 
Step: 42      Time_fs:4.0637256685284004
 C 0.00000000 0.00000000 0.00000000
 C 2.00000000 0.00000000 0.00000000
 C 0.00000000 2.00000000 0.00000000
3 
Step: 43      Time_fs:4.1604810415886
 C 0.00000000 0.00000000 0.00000000
 C 2.00000000 0.00000000 0.00000000
 C 0.00000000 2.00000000 0.00000000
3 
Step: 44      Time_fs:4.2572364146488
 C 0.00000000 0.00000000 0.00000000
 C 2.00000000 0.00000000 0.00000000
 C 0.00000000 2.00000000 0.00000000
3 
Step: 45      Time_fs:4.353991787709
 C 0.00000000 0.00000000 0.00000000
 C 2.00000000 0.00000000 0.00000000
 C 0.00000000 2.00000000 0.00000000
3 
Step: 46      Time_fs:4.4507471607692
 C 0.00000000 0.00000000 0.00000000
 C 2.00000000 0.00000000 0.00000000
 C 0.00000000 2.00000000 0.00000000
3 
Step: 47      Time_fs:4.5475025338294
 C 0.00000000 0.00000000 0.00000000
 C 2.00000000 0.00000000 0.00000000
 C 0.00000000 2.00000000 0.00000000
3 
Step: 48      Time_fs:4.6442579068896
 C 0.00000000 0.00000000 0.00000000
 C 2.00000000 0.00000000 0.00000000
 C 0.00000000 2.00000000 0.00000000
3 
Step: 49      Time_fs:4.7410132799498
 C 0.00000000 0.00000000 0.00000000
 C 2.00000000 0.00000000 0.00000000
 C 0.00000000 2.00000000 0.00000000
3 
Step: 50      Time_fs:4.83776865301
 C 0.00000000 0.00000000 0.00000000
 C 2.00000000 0.00000000 0.00000000
 C 0.00000000 2.00000000 0.00000000
3 
Step: 51      Time_fs:4.9345240260702
 C 0.00000000 0.00000000 0.00000000
 C 2.00000000 0.00000000 0.00000000
 C 0.00000000 2.00000000 0.00000000
3 
Step: 52      Time_fs:5.0312793991304
 C 0.00000000 0.00000000 0.00000000
 C 2.00000000 0.00000000 0.00000000
 C 0.00000000 2.00000000 0.00000000
3 
Step: 53      Time_fs:5.1280347721906
 C 0.00000000 0.00000000 0.00000000
 C 2.00000000 0.00000000 0.00000000
 C 0.00000000 2.00000000 0.00000000
3 
Step: 54      Time_fs:5.2247901452508
 C 0.00000000 0.00000000 0.00000000
 C 2.00000000 0.00000000 0.00000000
 C 0.00000000 2.00000000 0.00000000
3 
Step: 55      Time_fs:5.321545518311
 C 0.00000000 0.00000000 0.00000000
 C 2.00000000 0.00000000 0.00000000
 C 0.00000000 2.00000000 0.00000000
3 
Step: 56      Time_fs:5.4183008913712
 C 0.00000000 0.00000000 0.00000000
 C 2.00000000 0.00000000 0.00000000
 C 0.00000000 2.00000000 0.00000000
3 
Step: 57      Time_fs:5.5150562644314
 C 0.00000000 0.00000000 0.00000000
 C 2.00000000 0.00000000 0.00000000
 C 0.00000000 2.00000000 0.00000000
3 
Step: 58      Time_fs:5.6118116374916
 C 0.00000000 0.00000000 0.00000000
 C 2.00000000 0.00000000 0.00000000
 C 0.00000000 2.00000000 0.00000000
3 
Step: 59      Time_fs:5.7085670105518
 C 0.00000000 0.00000000 0.00000000
 C 2.00000000 0.00000000 0.00000000
 C 0.00000000 2.00000000 0.00000000
3 
Step: 60      Time_fs:5.805322383612
 C 0.00000000 0.00000000 0.00000000
 C 2.00000000 0.00000000 0.00000000
 C 0.00000000 2.00000000 0.00000000
3 
Step: 61      Time_fs:5.9020777566722
 C 0.00000000 0.00000000 0.00000000
 C 2.00000000 0.00000000 0.00000000
 C 0.00000000 2.00000000 0.00000000
3 
Step: 62      Time_fs:5.9988331297324
 C 0.00000000 0.00000000 0.00000000
 C 2.00000000 0.00000000 0.00000000
 C 0.00000000 2.00000000 0.00000000
3 
Step: 63      Time_fs:6.0955885027926
 C 0.00000000 0.00000000 0.00000000
 C 2.00000000 0.00000000 0.00000000
 C 0.00000000 2.00000000 0.00000000
3 
Step: 64      Time_fs:6.1923438758528
 C 0.00000000 0.00000000 0.00000000
 C 2.00000000 0.00000000 0.00000000
 C 0.00000000 2.00000000 0.00000000
3 
Step: 65      Time_fs:6.289099248913001
 C 0.00000000 0.00000000 0.00000000
 C 2.00000000 0.00000000 0.00000000
 C 0.00000000 2.00000000 0.00000000
3 
Step: 66      Time_fs:6.3858546219732
 C 0.00000000 0.00000000 0.00000000
 C 2.00000000 0.00000000 0.00000000
 C 0.00000000 2.00000000 0.00000000
3 
Step: 67      Time_fs:6.482609995033401
 C 0.00000000 0.00000000 0.00000000
 C 2.00000000 0.00000000 0.00000000
 C 0.00000000 2.00000000 0.00000000
3 
Step: 68      Time_fs:6.5793653680936
 C 0.00000000 0.00000000 0.00000000
 C 2.00000000 0.00000000 0.00000000
 C 0.00000000 2.00000000 0.00000000
3 
Step: 69      Time_fs:6.676120741153801
 C 0.00000000 0.00000000 0.00000000
 C 2.00000000 0.00000000 0.00000000
 C 0.00000000 2.00000000 0.00000000
3 
Step: 70      Time_fs:6.772876114214
 C 0.00000000 0.00000000 0.00000000
 C 2.00000000 0.00000000 0.00000000
 C 0.00000000 2.00000000 0.00000000
3 
Step: 71      Time_fs:6.869631487274201
 C 0.00000000 0.00000000 0.00000000
 C 2.00000000 0.00000000 0.00000000
 C 0.00000000 2.00000000 0.00000000
3 
Step: 72      Time_fs:6.9663868603344
 C 0.00000000 0.00000000 0.00000000
 C 2.00000000 0.00000000 0.00000000
 C 0.00000000 2.00000000 0.00000000
3 
Step: 73      Time_fs:7.063142233394601
 C 0.00000000 0.00000000 0.00000000
 C 2.00000000 0.00000000 0.00000000
 C 0.00000000 2.00000000 0.00000000
3 
Step: 74      Time_fs:7.1598976064548
 C 0.00000000 0.00000000 0.00000000
 C 2.00000000 0.00000000 0.00000000
 C 0.00000000 2.00000000 0.00000000
3 
Step: 75      Time_fs:7.2566529795150005
 C 0.00000000 0.00000000 0.00000000
 C 2.00000000 0.00000000 0.00000000
 C 0.00000000 2.00000000 0.00000000
3 
Step: 76      Time_fs:7.3534083525752
 C 0.00000000 0.00000000 0.00000000
 C 2.00000000 0.00000000 0.00000000
 C 0.00000000 2.00000000 0.00000000
3 
Step: 77      Time_fs:7.4501637256354005
 C 0.00000000 0.00000000 0.00000000
 C 2.00000000 0.00000000 0.00000000
 C 0.00000000 2.00000000 0.00000000
3 
Step: 78      Time_fs:7.5469190986956
 C 0.00000000 0.00000000 0.00000000
 C 2.00000000 0.00000000 0.00000000
 C 0.00000000 2.00000000 0.00000000
3 
Step: 79      Time_fs:7.6436744717558005
 C 0.00000000 0.00000000 0.00000000
 C 2.00000000 0.00000000 0.00000000
 C 0.00000000 2.00000000 0.00000000
3 
Step: 80      Time_fs:7.740429844816
 C 0.00000000 0.00000000 0.00000000
 C 2.00000000 0.00000000 0.00000000
 C 0.00000000 2.00000000 0.00000000
3 
Step: 81      Time_fs:7.8371852178762005
 C 0.00000000 0.00000000 0.00000000
 C 2.00000000 0.00000000 0.00000000
 C 0.00000000 2.00000000 0.00000000
3 
Step: 82      Time_fs:7.9339405909364
 C 0.00000000 0.00000000 0.00000000
 C 2.00000000 0.00000000 0.00000000
 C 0.00000000 2.00000000 0.00000000
3 
Step: 83      Time_fs:8.0306959639966
 C 0.00000000 0.00000000 0.00000000
 C 2.00000000 0.00000000 0.00000000
 C 0.00000000 2.00000000 0.00000000
3 
Step: 84      Time_fs:8.127451337056801
 C 0.00000000 0.00000000 0.00000000
 C 2.00000000 0.00000000 0.00000000
 C 0.00000000 2.00000000 0.00000000
3 
Step: 85      Time_fs:8.224206710117
 C 0.00000000 0.00000000 0.00000000
 C 2.00000000 0.00000000 0.00000000
 C 0.00000000 2.00000000 0.00000000
3 
Step: 86      Time_fs:8.3209620831772
 C 0.00000000 0.00000000 0.00000000
 C 2.00000000 0.00000000 0.00000000
 C 0.00000000 2.00000000 0.00000000
3 
Step: 87      Time_fs:8.4177174562374
 C 0.00000000 0.00000000 0.00000000
 C 2.00000000 0.00000000 0.00000000
 C 0.00000000 2.00000000 0.00000000
3 
Step: 88      Time_fs:8.5144728292976
 C 0.00000000 0.00000000 0.00000000
 C 2.00000000 0.00000000 0.00000000
 C 0.00000000 2.00000000 0.00000000
3 
Step: 89      Time_fs:8.6112282023578
 C 0.00000000 0.00000000 0.00000000
 C 2.00000000 0.00000000 0.00000000
 C 0.00000000 2.00000000 0.00000000
3 
Step: 90      Time_fs:8.707983575418
 C 0.00000000 0.00000000 0.00000000
 C 2.00000000 0.00000000 0.00000000
 C 0.00000000 2.00000000 0.00000000
3 
Step: 91      Time_fs:8.8047389484782
 C 0.00000000 0.00000000 0.00000000
 C 2.00000000 0.00000000 0.00000000
 C 0.00000000 2.00000000 0.00000000
3 
Step: 92      Time_fs:8.9014943215384
 C 0.00000000 0.00000000 0.00000000
 C 2.00000000 0.00000000 0.00000000
 C 0.00000000 2.00000000 0.00000000
3 
Step: 93      Time_fs:8.9982496945986
 C 0.00000000 0.00000000 0.00000000
 C 2.00000000 0.00000000 0.00000000
 C 0.00000000 2.00000000 0.00000000
3 
Step: 94      Time_fs:9.0950050676588
 C 0.00000000 0.00000000 0.00000000
 C 2.00000000 0.00000000 0.00000000
 C 0.00000000 2.00000000 0.00000000
3 
Step: 95      Time_fs:9.191760440719
 C 0.00000000 0.00000000 0.00000000
 C 2.00000000 0.00000000 0.00000000
 C 0.00000000 2.00000000 0.00000000
3 
Step: 96      Time_fs:9.2885158137792
 C 0.00000000 0.00000000 0.00000000
 C 2.00000000 0.00000000 0.00000000
 C 0.00000000 2.00000000 0.00000000
3 
Step: 97      Time_fs:9.3852711868394
 C 0.00000000 0.00000000 0.00000000
 C 2.00000000 0.00000000 0.00000000
 C 0.00000000 2.00000000 0.00000000
3 
Step: 98      Time_fs:9.4820265598996
 C 0.00000000 0.00000000 0.00000000
 C 2.00000000 0.00000000 0.00000000
 C 0.00000000 2.00000000 0.00000000
3 
Step: 99      Time_fs:9.578781932959801
 C 0.00000000 0.00000000 0.00000000
 C 2.00000000 0.00000000 0.00000000
 C 0.00000000 2.00000000 0.00000000
3 
Step: 100      Time_fs:9.67553730602
 C 0.00000000 0.00000000 0.00000000
 C 2.00000000 0.00000000 0.00000000
 C 0.00000000 2.00000000 0.00000000
