3 
Step: 1      Time_fs:0.1451330595903
 O -0.00003834 0.00000000 -0.00002969
 H 0.00018861 -0.00000000 0.00038442
 H 0.00041954 -0.00000000 0.00009039
3 
Step: 2      Time_fs:0.2902661191806
 O -0.00007632 0.00000000 -0.00005910
 H 0.00037687 -0.00000000 0.00076334
 H 0.00083364 -0.00000000 0.00018176
