3 
Step: 1      Time_fs:0.0967553730602
 O -0.00000239 0.00000000 -0.00000187
 H 0.00000238 0.00000000 0.00003604
 H 0.00003555 0.00000000 -0.00000641
3 
Step: 2      Time_fs:0.1935107461204
 O -0.00000476 0.00000000 -0.00000372
 H 0.00000476 0.00000000 0.00007183
 H 0.00007084 0.00000000 -0.00001275
3 
Step: 3      Time_fs:0.2902661191806
 O -0.00000711 0.00000000 -0.00000556
 H 0.00000717 0.00000000 0.00010718
 H 0.00010573 0.00000000 -0.00001897
3 
Step: 4      Time_fs:0.3870214922408
 O -0.00000943 0.00000000 -0.00000737
 H 0.00000960 0.00000000 0.00014193
 H 0.00014004 0.00000000 -0.00002502
3 
Step: 5      Time_fs:0.483776865301
 O -0.00001170 0.00000000 -0.00000914
 H 0.00001207 0.00000000 0.00017593
 H 0.00017362 0.00000000 -0.00003085
3 
Step: 6      Time_fs:0.5805322383612
 O -0.00001392 0.00000000 -0.00001087
 H 0.00001458 0.00000000 0.00020900
 H 0.00020632 0.00000000 -0.00003642
3 
Step: 7      Time_fs:0.6772876114214
 O -0.00001607 0.00000000 -0.00001256
 H 0.00001713 0.00000000 0.00024101
 H 0.00023799 0.00000000 -0.00004169
3 
Step: 8      Time_fs:0.7740429844816
 O -0.00001816 0.00000000 -0.00001419
 H 0.00001973 0.00000000 0.00027180
 H 0.00026850 0.00000000 -0.00004661
3 
Step: 9      Time_fs:0.8707983575418
 O -0.00002017 0.00000000 -0.00001576
 H 0.00002239 0.00000000 0.00030123
 H 0.00029770 0.00000000 -0.00005115
3 
Step: 10      Time_fs:0.967553730602
 O -0.00002209 0.00000000 -0.00001726
 H 0.00002511 0.00000000 0.00032919
 H 0.00032549 0.00000000 -0.00005527
3 
Step: 11      Time_fs:1.0643091036622
 O -0.00002392 0.00000000 -0.00001869
 H 0.00002790 0.00000000 0.00035555
 H 0.00035173 0.00000000 -0.00005894
3 
Step: 1      Time_fs:0.0967553730602
 O -0.00000239 0.00000000 -0.00000187
 H 0.00000238 0.00000000 0.00003604
 H 0.00003555 0.00000000 -0.00000641
3 
Step: 2      Time_fs:0.1935107461204
 O -0.00000476 0.00000000 -0.00000372
 H 0.00000476 0.00000000 0.00007183
 H 0.00007084 0.00000000 -0.00001275
3 
Step: 3      Time_fs:0.2902661191806
 O -0.00000711 0.00000000 -0.00000556
 H 0.00000717 0.00000000 0.00010718
 H 0.00010573 0.00000000 -0.00001897
3 
Step: 4      Time_fs:0.3870214922408
 O -0.00000943 0.00000000 -0.00000737
 H 0.00000960 0.00000000 0.00014193
 H 0.00014004 0.00000000 -0.00002502
3 
Step: 5      Time_fs:0.483776865301
 O -0.00001170 0.00000000 -0.00000914
 H 0.00001207 0.00000000 0.00017593
 H 0.00017362 0.00000000 -0.00003085
3 
Step: 6      Time_fs:0.5805322383612
 O -0.00001392 0.00000000 -0.00001087
 H 0.00001458 0.00000000 0.00020900
 H 0.00020632 0.00000000 -0.00003642
3 
Step: 7      Time_fs:0.6772876114214
 O -0.00001607 0.00000000 -0.00001256
 H 0.00001713 0.00000000 0.00024101
 H 0.00023799 0.00000000 -0.00004169
3 
Step: 8      Time_fs:0.7740429844816
 O -0.00001816 0.00000000 -0.00001419
 H 0.00001973 0.00000000 0.00027180
 H 0.00026850 0.00000000 -0.00004661
3 
Step: 9      Time_fs:0.8707983575418
 O -0.00002017 0.00000000 -0.00001576
 H 0.00002239 0.00000000 0.00030123
 H 0.00029770 0.00000000 -0.00005115
3 
Step: 10      Time_fs:0.967553730602
 O -0.00002209 0.00000000 -0.00001726
 H 0.00002511 0.00000000 0.00032919
 H 0.00032549 0.00000000 -0.00005527
3 
Step: 11      Time_fs:1.0643091036622
 O -0.00002392 0.00000000 -0.00001869
 H 0.00002790 0.00000000 0.00035555
 H 0.00035173 0.00000000 -0.00005894
