3 
Step: 1      Time_fs:0.1451330595903
 O -0.00003713 0.00000000 -0.00002901
 H 0.00014228 0.00000000 0.00042531
 H 0.00044709 0.00000000 0.00003517
3 
Step: 2      Time_fs:0.2902661191806
 O -0.00007388 0.00000000 -0.00005772
 H 0.00028424 0.00000000 0.00084483
 H 0.00088850 0.00000000 0.00007141
